simulations_all_code/gfli_d/outputs/component_connection_matrices/F.csv
Index,"('voltage_source_4a_0', 'i_bus_D')","('voltage_source_4a_0', 'i_bus_Q')","('gfli_23a_0', 'i_bus_D')","('gfli_23a_0', 'i_bus_Q')","('constant_impedance_loads_0', 'i_bus_D')","('constant_impedance_loads_0', 'i_bus_Q')","('shunt_parallel_rc_0', 'v_bus_D')","('shunt_parallel_rc_0', 'v_bus_Q')","('shunt_parallel_rc_1', 'v_bus_D')","('shunt_parallel_rc_1', 'v_bus_Q')","('branch_series_rl_0', 'i_br_D')","('branch_series_rl_0', 'i_br_Q')"
"('voltage_source_4a_0', 'v_ref_d')",0.0,0.0,0.0,0.0,0.0,0.0,0.0,0.0,0.0,0.0,0.0,0.0
"('voltage_source_4a_0', 'v_ref_q')",0.0,0.0,0.0,0.0,0.0,0.0,0.0,0.0,0.0,0.0,0.0,0.0
"('voltage_source_4a_0', 'v_bus_D')",0.0,0.0,0.0,0.0,0.0,0.0,1.0,0.0,0.0,0.0,0.0,0.0
"('voltage_source_4a_0', 'v_bus_Q')",0.0,0.0,0.0,0.0,0.0,0.0,0.0,1.0,0.0,0.0,0.0,0.0
"('gfli_23a_0', 'i_ref_d')",0.0,0.0,0.0,0.0,0.0,0.0,0.0,0.0,0.0,0.0,0.0,0.0
"('gfli_23a_0', 'i_ref_q')",0.0,0.0,0.0,0.0,0.0,0.0,0.0,0.0,0.0,0.0,0.0,0.0
"('gfli_23a_0', 'v_dc_ref')",0.0,0.0,0.0,0.0,0.0,0.0,0.0,0.0,0.0,0.0,0.0,0.0
"('gfli_23a_0', 'v_s')",0.0,0.0,0.0,0.0,0.0,0.0,0.0,0.0,0.0,0.0,0.0,0.0
"('gfli_23a_0', 'i_load_ref')",0.0,0.0,0.0,0.0,0.0,0.0,0.0,0.0,0.0,0.0,0.0,0.0
"('gfli_23a_0', 'v_bus_D')",0.0,0.0,0.0,0.0,0.0,0.0,0.0,0.0,1.0,0.0,0.0,0.0
"('gfli_23a_0', 'v_bus_Q')",0.0,0.0,0.0,0.0,0.0,0.0,0.0,0.0,0.0,1.0,0.0,0.0
"('constant_impedance_loads_0', 'v_ground_D')",0.0,0.0,0.0,0.0,0.0,0.0,0.0,0.0,0.0,0.0,0.0,0.0
"('constant_impedance_loads_0', 'v_ground_Q')",0.0,0.0,0.0,0.0,0.0,0.0,0.0,0.0,0.0,0.0,0.0,0.0
"('constant_impedance_loads_0', 'v_bus_D')",0.0,0.0,0.0,0.0,0.0,0.0,0.0,0.0,1.0,0.0,0.0,0.0
"('constant_impedance_loads_0', 'v_bus_Q')",0.0,0.0,0.0,0.0,0.0,0.0,0.0,0.0,0.0,1.0,0.0,0.0
"('shunt_parallel_rc_0', 'i_bus_D')",1.0,0.0,0.0,0.0,0.0,0.0,0.0,0.0,0.0,0.0,-1.0,0.0
"('shunt_parallel_rc_0', 'i_bus_Q')",0.0,1.0,0.0,0.0,0.0,0.0,0.0,0.0,0.0,0.0,0.0,-1.0
"('shunt_parallel_rc_1', 'i_bus_D')",0.0,0.0,1.0,0.0,1.0,0.0,0.0,0.0,0.0,0.0,1.0,0.0
"('shunt_parallel_rc_1', 'i_bus_Q')",0.0,0.0,0.0,1.0,0.0,1.0,0.0,0.0,0.0,0.0,0.0,1.0
"('branch_series_rl_0', 'v_from_bus_D')",0.0,0.0,0.0,0.0,0.0,0.0,1.0,0.0,0.0,0.0,0.0,0.0
"('branch_series_rl_0', 'v_from_bus_Q')",0.0,0.0,0.0,0.0,0.0,0.0,0.0,1.0,0.0,0.0,0.0,0.0
"('branch_series_rl_0', 'v_to_bus_D')",0.0,0.0,0.0,0.0,0.0,0.0,0.0,0.0,1.0,0.0,0.0,0.0
"('branch_series_rl_0', 'v_to_bus_Q')",0.0,0.0,0.0,0.0,0.0,0.0,0.0,0.0,0.0,1.0,0.0,0.0
